9162
  -OEChem-01282010393D

 36 40  0     0  0  0  0  0  0999 V2000
    0.7255    0.7593    0.0004 C   0  0  0  0  0  0  0  0  0  0  0  0
   -0.7254    0.7593    0.0003 C   0  0  0  0  0  0  0  0  0  0  0  0
    1.4523   -0.4625    0.0005 C   0  0  0  0  0  0  0  0  0  0  0  0
   -1.4524   -0.4625    0.0005 C   0  0  0  0  0  0  0  0  0  0  0  0
    2.8985   -0.4723    0.0002 C   0  0  0  0  0  0  0  0  0  0  0  0
   -2.8984   -0.4723    0.0002 C   0  0  0  0  0  0  0  0  0  0  0  0
    0.6977   -1.6453    0.0008 C   0  0  0  0  0  0  0  0  0  0  0  0
   -0.6978   -1.6453    0.0008 C   0  0  0  0  0  0  0  0  0  0  0  0
    3.5974    0.7571    0.0000 C   0  0  0  0  0  0  0  0  0  0  0  0
   -3.5973    0.7571   -0.0002 C   0  0  0  0  0  0  0  0  0  0  0  0
    1.4897    1.9471    0.0001 C   0  0  0  0  0  0  0  0  0  0  0  0
   -1.4897    1.9471    0.0001 C   0  0  0  0  0  0  0  0  0  0  0  0
    2.8836    1.9497    0.0001 C   0  0  0  0  0  0  0  0  0  0  0  0
   -2.8835    1.9497   -0.0001 C   0  0  0  0  0  0  0  0  0  0  0  0
    3.6992   -1.6458   -0.0003 C   0  0  0  0  0  0  0  0  0  0  0  0
   -3.6993   -1.6457   -0.0002 C   0  0  0  0  0  0  0  0  0  0  0  0
    5.0032    0.7934   -0.0002 C   0  0  0  0  0  0  0  0  0  0  0  0
   -5.0032    0.7934   -0.0006 C   0  0  0  0  0  0  0  0  0  0  0  0
    5.0968   -1.6012   -0.0008 C   0  0  0  0  0  0  0  0  0  0  0  0
   -5.0969   -1.6012   -0.0004 C   0  0  0  0  0  0  0  0  0  0  0  0
    5.7497   -0.3796   -0.0007 C   0  0  0  0  0  0  0  0  0  0  0  0
   -5.7497   -0.3795   -0.0006 C   0  0  0  0  0  0  0  0  0  0  0  0
    1.1735   -2.6226    0.0010 H   0  0  0  0  0  0  0  0  0  0  0  0
   -1.1737   -2.6226    0.0009 H   0  0  0  0  0  0  0  0  0  0  0  0
    1.0178    2.9260   -0.0001 H   0  0  0  0  0  0  0  0  0  0  0  0
   -1.0177    2.9260    0.0001 H   0  0  0  0  0  0  0  0  0  0  0  0
    3.3992    2.9084   -0.0001 H   0  0  0  0  0  0  0  0  0  0  0  0
   -3.3991    2.9084   -0.0003 H   0  0  0  0  0  0  0  0  0  0  0  0
    3.2488   -2.6349   -0.0003 H   0  0  0  0  0  0  0  0  0  0  0  0
   -3.2488   -2.6349   -0.0001 H   0  0  0  0  0  0  0  0  0  0  0  0
    5.5322    1.7449   -0.0002 H   0  0  0  0  0  0  0  0  0  0  0  0
   -5.5321    1.7449   -0.0008 H   0  0  0  0  0  0  0  0  0  0  0  0
    5.6682   -2.5248   -0.0011 H   0  0  0  0  0  0  0  0  0  0  0  0
   -5.6683   -2.5248   -0.0005 H   0  0  0  0  0  0  0  0  0  0  0  0
    6.8344   -0.3375   -0.0010 H   0  0  0  0  0  0  0  0  0  0  0  0
   -6.8344   -0.3374   -0.0008 H   0  0  0  0  0  0  0  0  0  0  0  0
  1  2  1  0  0  0  0
  1  3  2  0  0  0  0
  1 11  1  0  0  0  0
  2  4  2  0  0  0  0
  2 12  1  0  0  0  0
  3  5  1  0  0  0  0
  3  7  1  0  0  0  0
  4  6  1  0  0  0  0
  4  8  1  0  0  0  0
  5  9  1  0  0  0  0
  5 15  2  0  0  0  0
  6 10  1  0  0  0  0
  6 16  2  0  0  0  0
  7  8  2  0  0  0  0
  7 23  1  0  0  0  0
  8 24  1  0  0  0  0
  9 13  1  0  0  0  0
  9 17  2  0  0  0  0
 10 14  1  0  0  0  0
 10 18  2  0  0  0  0
 11 13  2  0  0  0  0
 11 25  1  0  0  0  0
 12 14  2  0  0  0  0
 12 26  1  0  0  0  0
 13 27  1  0  0  0  0
 14 28  1  0  0  0  0
 15 19  1  0  0  0  0
 15 29  1  0  0  0  0
 16 20  1  0  0  0  0
 16 30  1  0  0  0  0
 17 21  1  0  0  0  0
 17 31  1  0  0  0  0
 18 22  1  0  0  0  0
 18 32  1  0  0  0  0
 19 21  2  0  0  0  0
 19 33  1  0  0  0  0
 20 22  2  0  0  0  0
 20 34  1  0  0  0  0
 21 35  1  0  0  0  0
 22 36  1  0  0  0  0
M  END
> <PUBCHEM_COMPOUND_CID>
9162

> <PUBCHEM_CONFORMER_RMSD>
0.6

> <PUBCHEM_CONFORMER_DIVERSEORDER>
1

> <PUBCHEM_MMFF94_PARTIAL_CHARGES>
28
11 -0.15
12 -0.15
13 -0.15
14 -0.15
15 -0.15
16 -0.15
17 -0.15
18 -0.15
19 -0.15
20 -0.15
21 -0.15
22 -0.15
23 0.15
24 0.15
25 0.15
26 0.15
27 0.15
28 0.15
29 0.15
30 0.15
31 0.15
32 0.15
33 0.15
34 0.15
35 0.15
36 0.15
7 -0.15
8 -0.15

> <PUBCHEM_EFFECTIVE_ROTOR_COUNT>
0

> <PUBCHEM_PHARMACOPHORE_FEATURES>
5
6 1 2 3 4 7 8 rings
6 1 3 5 9 11 13 rings
6 2 4 6 10 12 14 rings
6 5 9 15 17 19 21 rings
6 6 10 16 18 20 22 rings

> <PUBCHEM_HEAVY_ATOM_COUNT>
22

> <PUBCHEM_ATOM_DEF_STEREO_COUNT>
0

> <PUBCHEM_ATOM_UDEF_STEREO_COUNT>
0

> <PUBCHEM_BOND_DEF_STEREO_COUNT>
0

> <PUBCHEM_BOND_UDEF_STEREO_COUNT>
0

> <PUBCHEM_ISOTOPIC_ATOM_COUNT>
0

> <PUBCHEM_COMPONENT_COUNT>
1

> <PUBCHEM_CACTVS_TAUTO_COUNT>
1

> <PUBCHEM_CONFORMER_ID>
000023CA00000001

> <PUBCHEM_MMFF94_ENERGY>
87.2997

> <PUBCHEM_FEATURE_SELFOVERLAP>
25.464

> <PUBCHEM_SHAPE_FINGERPRINT>
10 15 18339631348551823080
10366900 7 17168145624252733824
12107183 9 17688588260443725130
12166972 35 17822014232697797325
12236239 1 18410856559639809065
12403259 226 18410568491894333828
12403259 415 18410565193354065312
12403260 363 18410575088958422981
13140716 1 18267303320800921035
13167823 11 18410572885639992263
13288520 33 18411700976365069925
13402501 40 18410856559639822062
13862211 1 18410570690917141159
14251764 18 18333728031824746912
14341114 176 18410298007738154123
14790565 3 18410860957686638469
15196674 1 18410575084663208837
15536298 74 18413388752124924104
15788980 27 18186241727353443251
17349148 13 18410855464423129091
17844677 252 18412269427829102288
17857418 61 18411135839893519227
1813 80 17240763982464490756
18681886 176 18341045302707789584
19591789 44 18410854360616780867
200 152 18202562882525508553
20028762 73 18273209820067303223
21033648 29 17749372780974534045
21130935 74 18201720643549705226
21236236 1 18341050727346657089
21267235 1 18410863161004666435
21279426 13 18337670789388765303
21682296 61 18129671777038297262
21709351 56 18334007298671640997
221357 26 18411980260560520821
221490 88 18336270140429252600
22393880 68 18115297887160515357
23402539 116 18413384358705728951
23522609 53 18122376594349651012
23559900 14 18410849992830375817
3004659 81 18260832584125072758
335352 9 18410855448055799509
34797466 226 17346604105894690356
350125 39 18410857663452114125
351380 180 18410292527354616171
3545911 37 18410856563940064116
3886686 26 16893957949383130218
4073 2 18041284369158203330
4214541 1 18410856534139316449
465052 167 18342181085102590014
474229 33 18412262839491649583
5104073 3 18412825776380594408
59755656 215 18408885109690578567
6138700 20 18336829685075546882
67856867 119 18336266854980328940
7495541 125 17774999124210325112
9709674 26 18335706099527959202

> <PUBCHEM_SHAPE_MULTIPOLES>
452.75
12.68
2.25
0.62
0
0.26
0
-2.89
0
0
0
0
0
0

> <PUBCHEM_SHAPE_SELFOVERLAP>
1050.446

> <PUBCHEM_SHAPE_VOLUME>
210.3

> <PUBCHEM_COORDINATE_TYPE>
2
5
10

$$$$
